Circuit: * C:\Users\julit\Desktop\sem7\analogica\lab2\Draft1.asc

Direct Newton iteration for .op point succeeded.

Date: Thu Feb 25 12:10:51 2021
Total elapsed time: 0.078 seconds.

tnom = 27
temp = 27
method = trap
totiter = 11
traniter = 0
tranpoints = 0
accept = 0
rejected = 0
matrix size = 103
fillins = 137
solver = Normal
Matrix Compiler1:     663 opcodes
Matrix Compiler2: 11.11 KB object code size
