Circuit: * C:\Users\julit\Desktop\sem7\analogica\lab2\Draft2.asc


Date: Sat Mar 06 08:30:49 2021
Total elapsed time: 0.072 seconds.

tnom = 27
temp = 27
method = trap
totiter = 406
traniter = 0
tranpoints = 0
accept = 0
rejected = 0
matrix size = 9
fillins = 1
solver = Normal
Matrix Compiler1: 368 bytes object code size  0.2/0.1/[0.1]
Matrix Compiler2: 615 bytes object code size  0.2/0.2/[0.1]

