Circuit: * C:\Users\julit\Desktop\sem7\analogica\lab2\lab2.asc

Direct Newton iteration failed to find .op point.  (Use ".option noopiter" to skip.)
Starting Gmin stepping
Gmin = 10
Gmin = 1.07374
vernier = 0.5
vernier = 0.25
vernier = 0.125
vernier = 0.0625
Gmin = 1.04056
vernier = 0.03125
vernier = 0.015625
vernier = 0.0078125
Gmin = 1.02049
vernier = 0.00390625
Gmin = 1.00959
vernier = 0.00195313
vernier = 0.00260417
vernier = 0.00130208
Gmin = 1.00746
vernier = 0.00173611
vernier = 0.000868055
Gmin = 1.00538
vernier = 0.00115741
vernier = 0.000578703
vernier = 0.000771604
vernier = 0.000578703
Gmin = 1.00446
vernier = 0.000434027
Gmin = 1.00344
Gmin = 0
Gmin stepping failed

Starting source stepping with srcstepmethod=0
Source Step = 3.0303%
Source Step = 33.3333%
Source Step = 63.6364%
Source Step = 93.9394%
Source stepping succeeded in finding the operating point.


Date: Fri Feb 19 18:40:24 2021
Total elapsed time: 0.284 seconds.

tnom = 27
temp = 27
method = modified trap
totiter = 7320
traniter = 2082
tranpoints = 1042
accept = 1042
rejected = 0
matrix size = 40
fillins = 57
solver = Normal
Matrix Compiler1: 4.68 KB object code size  1.1/0.5/[0.3]
Matrix Compiler2: 4.17 KB object code size  0.5/0.7/[0.3]

