Circuit: * C:\Users\julit\Desktop\sem7\analogica\lab2\lab2_2.asc

Direct Newton iteration for .op point succeeded.

Date: Sat Feb 20 01:05:39 2021
Total elapsed time: 0.047 seconds.

tnom = 27
temp = 27
method = trap
totiter = 11
traniter = 0
tranpoints = 0
accept = 0
rejected = 0
matrix size = 38
fillins = 28
solver = Normal
Matrix Compiler1:     169 opcodes
Matrix Compiler2: 3.51 KB object code size
