Circuit: * C:\Users\julit\Desktop\sem7\analogica\labs_ang1\lab3\lab3_2.asc


Date: Sat Mar 20 01:01:00 2021
Total elapsed time: 0.098 seconds.

tnom = 27
temp = 27
method = trap
totiter = 4041
traniter = 0
tranpoints = 0
accept = 0
rejected = 0
matrix size = 44
fillins = 32
solver = Normal
Matrix Compiler1: 3.62 KB object code size  0.7/0.4/[0.2]
Matrix Compiler2: 4.01 KB object code size  0.3/0.5/[0.3]

