Circuit: * C:\Users\julit\Desktop\sem7\analogica\labs_ang1\lab3\lab3_1.asc


Date: Tue Mar 16 11:27:11 2021
Total elapsed time: 0.892 seconds.

tnom = 27
temp = 27
method = trap
totiter = 400005
traniter = 0
tranpoints = 0
accept = 0
rejected = 0
matrix size = 9
fillins = 1
solver = Normal
Matrix Compiler1: 368 bytes object code size  0.1/0.0/[0.0]
Matrix Compiler2: 615 bytes object code size  0.1/0.1/[0.1]

