Circuit: * C:\Users\julit\Desktop\sem7\analogica\labs_ang1\lab3\lab3_4.asc


Date: Thu Mar 18 00:21:40 2021
Total elapsed time: 0.286 seconds.

tnom = 27
temp = 27
method = trap
totiter = 40028
traniter = 0
tranpoints = 0
accept = 0
rejected = 0
matrix size = 39
fillins = 32
solver = Normal
Matrix Compiler1: 3.52 KB object code size  1.0/0.3/[0.2]
Matrix Compiler2: 3.65 KB object code size  0.4/0.4/[0.3]

